ligand.pdb


 19 18  0  0  0  0  0  0  0  0999 V2000
   -0.7384   -2.3192   -0.0357 C   0  0  0  0  0  0  0  0  0  0  0  0
   -0.2989   -1.3197    0.9761 N   0  0  0  0  0  0  0  0  0  0  0  0
   -0.9497   -0.9379    1.6014 H   0  0  0  0  0  0  0  0  0  0  0  0
    0.9482   -0.9387    1.0219 C   0  0  0  0  0  0  0  0  0  0  0  0
    1.7951   -1.5660    1.7964 N   0  0  0  0  0  0  0  0  0  0  0  0
    1.3448    0.0753    0.2970 N   0  0  0  0  0  0  0  0  0  0  0  0
    1.4855   -2.3371    2.3520 H   0  0  0  0  0  0  0  0  0  0  0  0
    2.7482   -1.2702    1.8407 H   0  0  0  0  0  0  0  0  0  0  0  0
    0.6916    0.5554   -0.2894 H   0  0  0  0  0  0  0  0  0  0  0  0
    2.2975    0.3731    0.3294 H   0  0  0  0  0  0  0  0  0  0  0  0
   -1.4541   -1.5960   -1.1747 C   0  0  0  0  0  0  0  0  0  0  0  0
   -2.3725   -2.5780   -1.9075 C   0  0  0  0  0  0  0  0  0  0  0  0
   -4.2796   -3.3859   -0.5615 N   0  0  0  0  0  0  0  0  0  0  0  0
   -3.8302   -2.3180   -1.5045 C   0  0  0  0  0  0  0  0  0  0  0  0
   -4.3086   -4.3002   -1.0581 H   0  0  0  0  0  0  0  0  0  0  0  0
   -3.6150   -3.4453    0.2365 H   0  0  0  0  0  0  0  0  0  0  0  0
   -5.2289   -3.1578   -0.2052 H   0  0  0  0  0  0  0  0  0  0  0  0
   -4.7269   -2.3176   -2.7541 C   0  0  0  0  0  0  0  0  0  0  0  0
   -4.2874   -1.9670   -3.8331 O   0  0  0  0  0  0  0  0  0  0  0  0
 13 16  1  0  0  0
 13 17  1  0  0  0
 14 13  1  0  0  0
 18 14  1  0  0  0
 19 18  2  0  0  0
 12 14  1  0  0  0
 11 12  1  0  0  0
  1 11  1  0  0  0
  2  1  1  0  0  0
  2  3  1  0  0  0
  4  6  1  0  0  0
  4  2  1  0  0  0
  5  4  2  0  0  0
  6  9  1  0  0  0
 15 13  1  0  0  0
  7  5  1  0  0  0
  8  5  1  0  0  0
 10  6  1  0  0  0
M  CHG 1   5   1
M  CHG 1  13   1
M  END
> <minimizedAffinity>
-363.68953

$$$$
ligand.pdb


 19 18  0  0  0  0  0  0  0  0999 V2000
   -1.8285   -3.3785   -0.3697 C   0  0  0  0  0  0  0  0  0  0  0  0
   -1.8237   -4.4112   -1.4418 N   0  0  0  0  0  0  0  0  0  0  0  0
   -1.6184   -4.1565   -2.3656 H   0  0  0  0  0  0  0  0  0  0  0  0
   -2.1080   -5.6525   -1.1570 C   0  0  0  0  0  0  0  0  0  0  0  0
   -3.3478   -6.0662   -1.2041 N   0  0  0  0  0  0  0  0  0  0  0  0
   -1.1508   -6.4769   -0.8182 N   0  0  0  0  0  0  0  0  0  0  0  0
   -4.0760   -5.4306   -1.4588 H   0  0  0  0  0  0  0  0  0  0  0  0
   -3.5694   -7.0133   -0.9771 H   0  0  0  0  0  0  0  0  0  0  0  0
   -0.2047   -6.1538   -0.7781 H   0  0  0  0  0  0  0  0  0  0  0  0
   -1.3622   -7.4275   -0.5969 H   0  0  0  0  0  0  0  0  0  0  0  0
   -2.2879   -2.0470   -0.9603 C   0  0  0  0  0  0  0  0  0  0  0  0
   -2.9282   -2.2885   -2.3301 C   0  0  0  0  0  0  0  0  0  0  0  0
   -4.8337   -3.3326   -1.1552 N   0  0  0  0  0  0  0  0  0  0  0  0
   -4.4556   -2.3196   -2.1860 C   0  0  0  0  0  0  0  0  0  0  0  0
   -4.5874   -4.2850   -1.4952 H   0  0  0  0  0  0  0  0  0  0  0  0
   -4.3205   -3.1359   -0.2720 H   0  0  0  0  0  0  0  0  0  0  0  0
   -5.8569   -3.2841   -0.9792 H   0  0  0  0  0  0  0  0  0  0  0  0
   -5.1015   -2.6839   -3.5335 C   0  0  0  0  0  0  0  0  0  0  0  0
   -4.6027   -2.3159   -4.5805 O   0  0  0  0  0  0  0  0  0  0  0  0
 13 16  1  0  0  0
 13 17  1  0  0  0
 14 13  1  0  0  0
 18 14  1  0  0  0
 19 18  2  0  0  0
 12 14  1  0  0  0
 11 12  1  0  0  0
  1 11  1  0  0  0
  2  1  1  0  0  0
  2  3  1  0  0  0
  4  6  1  0  0  0
  4  2  1  0  0  0
  5  4  2  0  0  0
  6  9  1  0  0  0
 15 13  1  0  0  0
  7  5  1  0  0  0
  8  5  1  0  0  0
 10  6  1  0  0  0
M  CHG 1   5   1
M  CHG 1  13   1
M  END
> <minimizedAffinity>
-357.00025

$$$$
ligand.pdb


 19 18  0  0  0  0  0  0  0  0999 V2000
   -1.8316   -2.3960    0.6109 C   0  0  0  0  0  0  0  0  0  0  0  0
   -0.6608   -2.9385    1.3531 N   0  0  0  0  0  0  0  0  0  0  0  0
   -0.0993   -2.3386    1.8871 H   0  0  0  0  0  0  0  0  0  0  0  0
   -0.3709   -4.2087    1.2814 C   0  0  0  0  0  0  0  0  0  0  0  0
    0.8617   -4.6087    1.4587 N   0  0  0  0  0  0  0  0  0  0  0  0
   -1.3148   -5.0771    1.0247 N   0  0  0  0  0  0  0  0  0  0  0  0
    1.5800   -3.9403    1.6496 H   0  0  0  0  0  0  0  0  0  0  0  0
    1.0880   -5.5795    1.3947 H   0  0  0  0  0  0  0  0  0  0  0  0
   -2.2550   -4.7652    0.8841 H   0  0  0  0  0  0  0  0  0  0  0  0
   -1.0989   -6.0503    0.9664 H   0  0  0  0  0  0  0  0  0  0  0  0
   -1.3912   -1.9998   -0.7968 C   0  0  0  0  0  0  0  0  0  0  0  0
   -2.2175   -2.7733   -1.8282 C   0  0  0  0  0  0  0  0  0  0  0  0
   -4.5459   -3.2059   -1.1261 N   0  0  0  0  0  0  0  0  0  0  0  0
   -3.6565   -2.2404   -1.8392 C   0  0  0  0  0  0  0  0  0  0  0  0
   -4.5964   -4.0959   -1.6634 H   0  0  0  0  0  0  0  0  0  0  0  0
   -4.1623   -3.3945   -0.1777 H   0  0  0  0  0  0  0  0  0  0  0  0
   -5.4994   -2.8015   -1.0399 H   0  0  0  0  0  0  0  0  0  0  0  0
   -4.1385   -2.0637   -3.2890 C   0  0  0  0  0  0  0  0  0  0  0  0
   -4.9921   -2.7961   -3.7528 O   0  0  0  0  0  0  0  0  0  0  0  0
 13 16  1  0  0  0
 13 17  1  0  0  0
 14 13  1  0  0  0
 18 14  1  0  0  0
 19 18  2  0  0  0
 12 14  1  0  0  0
 11 12  1  0  0  0
  1 11  1  0  0  0
  2  1  1  0  0  0
  2  3  1  0  0  0
  4  6  1  0  0  0
  4  2  1  0  0  0
  5  4  2  0  0  0
  6  9  1  0  0  0
 15 13  1  0  0  0
  7  5  1  0  0  0
  8  5  1  0  0  0
 10  6  1  0  0  0
M  CHG 1   5   1
M  CHG 1  13   1
M  END
> <minimizedAffinity>
-335.06301

$$$$
ligand.pdb


 19 18  0  0  0  0  0  0  0  0999 V2000
   -1.8656   -3.6660   -2.4337 C   0  0  0  0  0  0  0  0  0  0  0  0
   -1.4196   -4.8047   -1.5849 N   0  0  0  0  0  0  0  0  0  0  0  0
   -0.5014   -5.1390   -1.6578 H   0  0  0  0  0  0  0  0  0  0  0  0
   -2.2536   -5.3693   -0.7552 C   0  0  0  0  0  0  0  0  0  0  0  0
   -3.3475   -5.9265   -1.2063 N   0  0  0  0  0  0  0  0  0  0  0  0
   -1.9947   -5.3690    0.5269 N   0  0  0  0  0  0  0  0  0  0  0  0
   -3.5428   -5.9194   -2.1865 H   0  0  0  0  0  0  0  0  0  0  0  0
   -3.9924   -6.3507   -0.5723 H   0  0  0  0  0  0  0  0  0  0  0  0
   -1.1593   -4.9363    0.8673 H   0  0  0  0  0  0  0  0  0  0  0  0
   -2.6301   -5.7975    1.1672 H   0  0  0  0  0  0  0  0  0  0  0  0
   -2.6803   -2.6958   -1.5807 C   0  0  0  0  0  0  0  0  0  0  0  0
   -1.7351   -1.7313   -0.8587 C   0  0  0  0  0  0  0  0  0  0  0  0
   -2.7684   -1.8427    1.3822 N   0  0  0  0  0  0  0  0  0  0  0  0
   -1.5466   -2.1868    0.5945 C   0  0  0  0  0  0  0  0  0  0  0  0
   -2.8622   -0.8080    1.4464 H   0  0  0  0  0  0  0  0  0  0  0  0
   -3.6070   -2.2385    0.9108 H   0  0  0  0  0  0  0  0  0  0  0  0
   -2.6886   -2.2409    2.3389 H   0  0  0  0  0  0  0  0  0  0  0  0
   -0.3203   -1.4892    1.2071 C   0  0  0  0  0  0  0  0  0  0  0  0
    0.7973   -1.9414    1.0430 O   0  0  0  0  0  0  0  0  0  0  0  0
 13 16  1  0  0  0
 13 17  1  0  0  0
 14 13  1  0  0  0
 18 14  1  0  0  0
 19 18  2  0  0  0
 12 14  1  0  0  0
 11 12  1  0  0  0
  1 11  1  0  0  0
  2  1  1  0  0  0
  2  3  1  0  0  0
  4  6  1  0  0  0
  4  2  1  0  0  0
  5  4  2  0  0  0
  6  9  1  0  0  0
 15 13  1  0  0  0
  7  5  1  0  0  0
  8  5  1  0  0  0
 10  6  1  0  0  0
M  CHG 1   5   1
M  CHG 1  13   1
M  END
> <minimizedAffinity>
-333.72910

$$$$
ligand.pdb


 19 18  0  0  0  0  0  0  0  0999 V2000
   -2.0507   -1.8871   -0.0706 C   0  0  0  0  0  0  0  0  0  0  0  0
   -2.5680   -2.3088   -1.4013 N   0  0  0  0  0  0  0  0  0  0  0  0
   -1.9460   -2.4537   -2.1445 H   0  0  0  0  0  0  0  0  0  0  0  0
   -3.8498   -2.4704   -1.5846 C   0  0  0  0  0  0  0  0  0  0  0  0
   -4.3758   -2.2408   -2.7599 N   0  0  0  0  0  0  0  0  0  0  0  0
   -4.6051   -2.8551   -0.5885 N   0  0  0  0  0  0  0  0  0  0  0  0
   -3.7946   -1.9422   -3.5163 H   0  0  0  0  0  0  0  0  0  0  0  0
   -5.3582   -2.3543   -2.9004 H   0  0  0  0  0  0  0  0  0  0  0  0
   -4.1986   -3.0238    0.3100 H   0  0  0  0  0  0  0  0  0  0  0  0
   -5.5871   -2.9784   -0.7219 H   0  0  0  0  0  0  0  0  0  0  0  0
   -0.5247   -1.9474   -0.0856 C   0  0  0  0  0  0  0  0  0  0  0  0
    0.0439   -0.5257   -0.0630 C   0  0  0  0  0  0  0  0  0  0  0  0
    1.8581    0.6987    1.0820 N   0  0  0  0  0  0  0  0  0  0  0  0
    0.7391   -0.2708    1.2811 C   0  0  0  0  0  0  0  0  0  0  0  0
    2.5949    0.2641    0.4890 H   0  0  0  0  0  0  0  0  0  0  0  0
    1.4958    1.5541    0.6140 H   0  0  0  0  0  0  0  0  0  0  0  0
    2.2646    0.9541    2.0038 H   0  0  0  0  0  0  0  0  0  0  0  0
    1.2903   -1.5916    1.8444 C   0  0  0  0  0  0  0  0  0  0  0  0
    1.5354   -1.7060    3.0306 O   0  0  0  0  0  0  0  0  0  0  0  0
 13 16  1  0  0  0
 13 17  1  0  0  0
 14 13  1  0  0  0
 18 14  1  0  0  0
 19 18  2  0  0  0
 12 14  1  0  0  0
 11 12  1  0  0  0
  1 11  1  0  0  0
  2  1  1  0  0  0
  2  3  1  0  0  0
  4  6  1  0  0  0
  4  2  1  0  0  0
  5  4  2  0  0  0
  6  9  1  0  0  0
 15 13  1  0  0  0
  7  5  1  0  0  0
  8  5  1  0  0  0
 10  6  1  0  0  0
M  CHG 1   5   1
M  CHG 1  13   1
M  END
> <minimizedAffinity>
-324.90341

$$$$
ligand.pdb


 19 18  0  0  0  0  0  0  0  0999 V2000
    1.5224   -1.7454    1.4220 C   0  0  0  0  0  0  0  0  0  0  0  0
    1.8025   -0.4349    2.0700 N   0  0  0  0  0  0  0  0  0  0  0  0
    2.1724   -0.4067    2.9770 H   0  0  0  0  0  0  0  0  0  0  0  0
    1.5415    0.6770    1.4389 C   0  0  0  0  0  0  0  0  0  0  0  0
    1.3148    0.6596    0.1509 N   0  0  0  0  0  0  0  0  0  0  0  0
    1.5149    1.8069    2.0973 N   0  0  0  0  0  0  0  0  0  0  0  0
    1.3413   -0.2060   -0.3481 H   0  0  0  0  0  0  0  0  0  0  0  0
    1.1244    1.5106   -0.3363 H   0  0  0  0  0  0  0  0  0  0  0  0
    1.6948    1.8154    3.0815 H   0  0  0  0  0  0  0  0  0  0  0  0
    1.3180    2.6615    1.6196 H   0  0  0  0  0  0  0  0  0  0  0  0
    0.0195   -1.8735    1.1824 C   0  0  0  0  0  0  0  0  0  0  0  0
   -0.2578   -1.9069   -0.3232 C   0  0  0  0  0  0  0  0  0  0  0  0
   -2.5435   -1.9347    0.6128 N   0  0  0  0  0  0  0  0  0  0  0  0
   -1.7301   -1.5611   -0.5832 C   0  0  0  0  0  0  0  0  0  0  0  0
   -2.5383   -2.9690    0.7290 H   0  0  0  0  0  0  0  0  0  0  0  0
   -2.1382   -1.4882    1.4604 H   0  0  0  0  0  0  0  0  0  0  0  0
   -3.5217   -1.6080    0.4836 H   0  0  0  0  0  0  0  0  0  0  0  0
   -2.2380   -2.3270   -1.8165 C   0  0  0  0  0  0  0  0  0  0  0  0
   -3.2967   -2.0311   -2.3382 O   0  0  0  0  0  0  0  0  0  0  0  0
 13 16  1  0  0  0
 13 17  1  0  0  0
 14 13  1  0  0  0
 18 14  1  0  0  0
 19 18  2  0  0  0
 12 14  1  0  0  0
 11 12  1  0  0  0
  1 11  1  0  0  0
  2  1  1  0  0  0
  2  3  1  0  0  0
  4  6  1  0  0  0
  4  2  1  0  0  0
  5  4  2  0  0  0
  6  9  1  0  0  0
 15 13  1  0  0  0
  7  5  1  0  0  0
  8  5  1  0  0  0
 10  6  1  0  0  0
M  CHG 1   5   1
M  CHG 1  13   1
M  END
> <minimizedAffinity>
-319.11424

$$$$
ligand.pdb


 19 18  0  0  0  0  0  0  0  0999 V2000
   -0.8142   -5.9249    0.9433 C   0  0  0  0  0  0  0  0  0  0  0  0
   -0.9309   -6.4392   -0.4488 N   0  0  0  0  0  0  0  0  0  0  0  0
   -0.4516   -7.2525   -0.7117 H   0  0  0  0  0  0  0  0  0  0  0  0
   -1.6575   -5.8004   -1.3244 C   0  0  0  0  0  0  0  0  0  0  0  0
   -2.9587   -5.7694   -1.1956 N   0  0  0  0  0  0  0  0  0  0  0  0
   -1.0807   -5.1990   -2.3326 N   0  0  0  0  0  0  0  0  0  0  0  0
   -3.3946   -6.2349   -0.4260 H   0  0  0  0  0  0  0  0  0  0  0  0
   -3.5180   -5.2893   -1.8699 H   0  0  0  0  0  0  0  0  0  0  0  0
   -0.0854   -5.2308   -2.4295 H   0  0  0  0  0  0  0  0  0  0  0  0
   -1.6315   -4.7104   -3.0072 H   0  0  0  0  0  0  0  0  0  0  0  0
    0.4206   -5.0318    1.0443 C   0  0  0  0  0  0  0  0  0  0  0  0
    0.0838   -3.7839    1.8653 C   0  0  0  0  0  0  0  0  0  0  0  0
    1.0399   -1.5501    1.4204 N   0  0  0  0  0  0  0  0  0  0  0  0
    0.0443   -2.5570    0.9444 C   0  0  0  0  0  0  0  0  0  0  0  0
    0.7486   -1.1840    2.3502 H   0  0  0  0  0  0  0  0  0  0  0  0
    1.9747   -1.9992    1.5016 H   0  0  0  0  0  0  0  0  0  0  0  0
    1.0910   -0.7645    0.7420 H   0  0  0  0  0  0  0  0  0  0  0  0
   -1.3644   -1.9395    0.9548 C   0  0  0  0  0  0  0  0  0  0  0  0
   -1.9758   -1.7710   -0.0835 O   0  0  0  0  0  0  0  0  0  0  0  0
 13 16  1  0  0  0
 13 17  1  0  0  0
 14 13  1  0  0  0
 18 14  1  0  0  0
 19 18  2  0  0  0
 12 14  1  0  0  0
 11 12  1  0  0  0
  1 11  1  0  0  0
  2  1  1  0  0  0
  2  3  1  0  0  0
  4  6  1  0  0  0
  4  2  1  0  0  0
  5  4  2  0  0  0
  6  9  1  0  0  0
 15 13  1  0  0  0
  7  5  1  0  0  0
  8  5  1  0  0  0
 10  6  1  0  0  0
M  CHG 1   5   1
M  CHG 1  13   1
M  END
> <minimizedAffinity>
-317.33604

$$$$
ligand.pdb


 19 18  0  0  0  0  0  0  0  0999 V2000
   -1.9660   -1.9393   -1.0992 C   0  0  0  0  0  0  0  0  0  0  0  0
   -1.8129   -2.3651    0.3189 N   0  0  0  0  0  0  0  0  0  0  0  0
   -1.9534   -3.3029    0.5661 H   0  0  0  0  0  0  0  0  0  0  0  0
   -1.5078   -1.4891    1.2366 C   0  0  0  0  0  0  0  0  0  0  0  0
   -0.3321   -0.9161    1.2278 N   0  0  0  0  0  0  0  0  0  0  0  0
   -2.3780   -1.1928    2.1670 N   0  0  0  0  0  0  0  0  0  0  0  0
    0.3310   -1.1500    0.5173 H   0  0  0  0  0  0  0  0  0  0  0  0
   -0.0923   -0.2525    1.9348 H   0  0  0  0  0  0  0  0  0  0  0  0
   -3.2739   -1.6384    2.1726 H   0  0  0  0  0  0  0  0  0  0  0  0
   -2.1496   -0.5249    2.8734 H   0  0  0  0  0  0  0  0  0  0  0  0
   -1.9521   -3.1752   -1.9964 C   0  0  0  0  0  0  0  0  0  0  0  0
   -0.8472   -4.1300   -1.5354 C   0  0  0  0  0  0  0  0  0  0  0  0
   -0.7220   -6.5165   -0.9105 N   0  0  0  0  0  0  0  0  0  0  0  0
   -1.4548   -5.2381   -0.6648 C   0  0  0  0  0  0  0  0  0  0  0  0
   -0.8917   -6.8337   -1.8872 H   0  0  0  0  0  0  0  0  0  0  0  0
    0.2970   -6.3644   -0.7671 H   0  0  0  0  0  0  0  0  0  0  0  0
   -1.0601   -7.2434   -0.2490 H   0  0  0  0  0  0  0  0  0  0  0  0
   -2.9430   -5.4181   -1.0094 C   0  0  0  0  0  0  0  0  0  0  0  0
   -3.3310   -6.4200   -1.5802 O   0  0  0  0  0  0  0  0  0  0  0  0
 13 16  1  0  0  0
 13 17  1  0  0  0
 14 13  1  0  0  0
 18 14  1  0  0  0
 19 18  2  0  0  0
 12 14  1  0  0  0
 11 12  1  0  0  0
  1 11  1  0  0  0
  2  1  1  0  0  0
  2  3  1  0  0  0
  4  6  1  0  0  0
  4  2  1  0  0  0
  5  4  2  0  0  0
  6  9  1  0  0  0
 15 13  1  0  0  0
  7  5  1  0  0  0
  8  5  1  0  0  0
 10  6  1  0  0  0
M  CHG 1   5   1
M  CHG 1  13   1
M  END
> <minimizedAffinity>
-317.25423

$$$$
